BEGIN NEW DATA CASE
C --------------------------------------------------------
C Generated by ATPDRAW  julho, quinta-feira 28, 2016
C A Bonneville Power Administration program
C by H. K. Høidalen at SEfAS/NTNU - NORWAY 1994-2015
C --------------------------------------------------------
$DUMMY, XYZ000
C  dT  >< Tmax >< Xopt >< Copt ><Epsiln>
   1.E-6      -1     60.                
     500       1       1       1       1       0       0       1       0
C        1         2         3         4         5         6         7         8
C 345678901234567890123456789012345678901234567890123456789012345678901234567890
/BRANCH
C < n1 >< n2 ><ref1><ref2>< R  >< L  >< C  >
C < n1 >< n2 ><ref1><ref2>< R  >< A  >< B  ><Leng><><>0
C LT IJUI22 PRE2
-1IJ223CUPR23C              .523 1.334  .006  102. 0 0                         0
-2IJ223AUPR23A              .102  .486 .0084  102. 0 0                         0
-3IJ223BUPR23B                                                                 0
C LT YTA I
51X0052CYTA52C            .63394     2.53575
52X0052AYTA52A            .05513    .6339375
53X0052BYTA52B
C ITA TRAFO I - TAP 525 KV (ANAREDE) - TRACTEBEL
  TRANSFORMER             .653531193.9X0001A  1.E6                             0
     0.653526338      1193.91115
     0.886199383      1222.33761
      1.23473851      1250.76407
      1.87023225      1279.19052
      2.49739672      1307.61698
            100.      1337.75619
            9999
 1X0052C                  .4970364.203303.11
 2X0054CX0054A            .00046.17889   16.
  TRANSFORMER X0001A                  X0001B                                   0
 1X0052A      
 2X0054AX0054B
  TRANSFORMER X0001A                  X0001C                                   0
 1X0052B      
 2X0054BX0054C
C UHYTA I
  X0054CX0053C                  .20144                                         0
  X0054AX0053A                  .20144                                         0
  X0054BX0053B                  .20144                                         0
C LT YTA I
51X0052CYTA52C            .63394     2.53575
52X0052AYTA52A            .05513    .6339375
53X0052BYTA52B
C UHYTA II
  X0055CX0053C                  .20144                                         0
  X0055AX0053A                  .20144                                         0
  X0055BX0053B                  .20144                                         0
C UHYTA III
  X0056CX0053C                  .20144                                         0
  X0056AX0053A                  .20144                                         0
  X0056BX0053B                  .20144                                         0
C UHYTA IV
  X0057CX0053C                  .20144                                         0
  X0057AX0053A                  .20144                                         0
  X0057BX0053B                  .20144                                         0
C ITA TRAFO II - TAP 525 KV (ANAREDE) - TRACTEBEL
  TRANSFORMER             .653531193.9X0002A  1.E6                             0
     0.653526338      1193.91115
     0.886199383      1222.33761
      1.23473851      1250.76407
      1.87023225      1279.19052
      2.49739672      1307.61698
            100.      1337.75619
            9999
 1X0052C                  .4970364.203303.11
 2X0055CX0055A            .00046.17889   16.
  TRANSFORMER X0002A                  X0002B                                   0
 1X0052A      
 2X0055AX0055B
  TRANSFORMER X0002A                  X0002C                                   0
 1X0052B      
 2X0055BX0055C
C ITA TRAFO III - TAP 525 KV (ANAREDE) - TRACTEBEL
  TRANSFORMER             .653531193.9X0003A  1.E6                             0
     0.653526338      1193.91115
     0.886199383      1222.33761
      1.23473851      1250.76407
      1.87023225      1279.19052
      2.49739672      1307.61698
            100.      1337.75619
            9999
 1X0052C                  .4970364.203303.11
 2X0056CX0056A            .00046.17889   16.
  TRANSFORMER X0003A                  X0003B                                   0
 1X0052A      
 2X0056AX0056B
  TRANSFORMER X0003A                  X0003C                                   0
 1X0052B      
 2X0056BX0056C
C UHYTA V
  X0058CX0053C                  .20144                                         0
  X0058AX0053A                  .20144                                         0
  X0058BX0053B                  .20144                                         0
C ITA TRAFO IV - TAP 525 KV (ANAREDE) - TRACTEBEL
  TRANSFORMER             .653531193.9X0004A  1.E6                             0
     0.653526338      1193.91115
     0.886199383      1222.33761
      1.23473851      1250.76407
      1.87023225      1279.19052
      2.49739672      1307.61698
            100.      1337.75619
            9999
 1X0052C                  .4970364.203303.11
 2X0057CX0057A            .00046.17889   16.
  TRANSFORMER X0004A                  X0004B                                   0
 1X0052A      
 2X0057AX0057B
  TRANSFORMER X0004A                  X0004C                                   0
 1X0052B      
 2X0057BX0057C
C ITA TRAFO V - TAP 525 KV (ANAREDE) - TRACTEBEL
  TRANSFORMER             .653531193.9X0005A  1.E6                             0
     0.653526338      1193.91115
     0.886199383      1222.33761
      1.23473851      1250.76407
      1.87023225      1279.19052
      2.49739672      1307.61698
            100.      1337.75619
            9999
 1X0052C                  .4970364.203303.11
 2X0058CX0058A            .00046.17889   16.
  TRANSFORMER X0005A                  X0005B                                   0
 1X0052A      
 2X0058AX0058B
  TRANSFORMER X0005A                  X0005C                                   0
 1X0052B      
 2X0058BX0058C
C LT Ita - Machadinho
-1MCH52CYTA52C            .289211.1234.00829  79.1 0 0                         0
-2MCH52AYTA52A            .02558.31953.01366  79.1 0 0                         0
-3MCH52BYTA52B                                                                 0
C LT Caxias - Ita
-1CAX52CYTA52C            .328921.2475 .0096  256. 0 0                         0
-2CAX52AYTA52A            .01769.32666.01334  256. 0 0                         0
-3CAX52BYTA52B                                                                 0
C LT Ita - Nova Santa Rita
-1X0006CYTA52C            .346561.3192.00827  314. 0 0                         0
-2X0006AYTA52A            .02536.32023.01366  314. 0 0                         0
-3X0006BYTA52B                                                                 0
C TF1SMA3 83MVA - Dados ASPEN - Curva de sat. de Maçambará
  TRANSFORMER             .77419498.14X0012A  1.E6                             0
    0.1204969063    298.88250906
    0.1525139988    348.69626057
     0.184808474    398.51001208
    0.3100712795    448.32376358
    0.7741864082    498.13751509
    2.4466505851     547.9512666
            100.     644.9680726
            9999
 1SM323C                  2.0155 89.53132.79
 2SM369C                  .154734.8E-539.837
 3X0061CX0061A            .01856  .659  13.8
  TRANSFORMER X0012A                  X0012B                                   0
 1SM323A      
 2SM369A      
 3X0061AX0061B
  TRANSFORMER X0012A                  X0012C                                   0
 1SM323B      
 2SM369B      
 3X0061BX0061C
  X0061C                    1.E6                                               0
  X0061A                    1.E6                                               0
  X0061B                    1.E6                                               0
C TF2 SMA3 83MVA - Dados ASPEN - Curva de sat. de Maçambará
  TRANSFORMER             .77419498.14X0013A  1.E6                             0
    0.1204969063    298.88250906
    0.1525139988    348.69626057
     0.184808474    398.51001208
    0.3100712795    448.32376358
    0.7741864082    498.13751509
    2.4466505851     547.9512666
            100.     644.9680726
            9999
 1SM323C                  2.0155 89.53132.79
 2SM369C                  .154734.8E-539.837
 3X0064CX0064A            .01856  .659  13.8
  TRANSFORMER X0013A                  X0013B                                   0
 1SM323A      
 2SM369A      
 3X0064AX0064B
  TRANSFORMER X0013A                  X0013C                                   0
 1SM323B      
 2SM369B      
 3X0064BX0064C
  X0064C                    1.E6                                               0
  X0064A                    1.E6                                               0
  X0064B                    1.E6                                               0
C TF1 SMA3 83MVA - Dados ASPEN - Curva de sat. do TF1 PALHOÇA 132.79
  TRANSFORMER              1.355495.76X0014A  1.E6                             0
        1.355048      495.757379
      2.98901693      519.364873
          4.6221        542.9594
            100.        560.9545
            9999
 1SM323C                   .9522  54.8135.45
 2SM313C                  .89888.0001979.674
 3X0062CX0062A            1.7284  .861  13.8
  TRANSFORMER X0014A                  X0014B                                   0
 1SM323A      
 2SM313A      
 3X0062AX0062B
  TRANSFORMER X0014A                  X0014C                                   0
 1SM323B      
 2SM313B      
 3X0062BX0062C
  X0062C                    1.E6                                               0
  X0062A                    1.E6                                               0
  X0062B                    1.E6                                               0
C TF2 SMA3 83MVA - Dados ASPEN - Curva de sat. do TF1 PALHOÇA 132.79
  TRANSFORMER              1.355495.76X0015A  1.E6                             0
        1.355048      495.757379
      2.98901693      519.364873
          4.6221        542.9594
            100.        560.9545
            9999
 1SM323C                   .9522  54.8135.45
 2SM313C                  .89888.0001979.674
 3X0063CX0063A            1.7284  .861  13.8
  TRANSFORMER X0015A                  X0015B                                   0
 1SM323A      
 2SM313A      
 3X0063AX0063B
  TRANSFORMER X0015A                  X0015C                                   0
 1SM323B      
 2SM313B      
 3X0063BX0063C
  X0063C                    1.E6                                               0
  X0063A                    1.E6                                               0
  X0063B                    1.E6                                               0
C TF3 SMA3 83MVA - Dados ASPEN - Curva de sat. de Maçambará
  TRANSFORMER             .77419498.14X0016A  1.E6                             0
    0.1204969063    298.88250906
    0.1525139988    348.69626057
     0.184808474    398.51001208
    0.3100712795    448.32376358
    0.7741864082    498.13751509
    2.4466505851     547.9512666
            100.     644.9680726
            9999
 1SM323C                  2.0155 89.53132.79
 2SM369C                  .154734.8E-539.837
 3X0065CX0065A            .01856  .659  13.8
  TRANSFORMER X0016A                  X0016B                                   0
 1SM323A      
 2SM369A      
 3X0065AX0065B
  TRANSFORMER X0016A                  X0016C                                   0
 1SM323B      
 2SM369B      
 3X0065BX0065C
  X0065C                    1.E6                                               0
  X0065A                    1.E6                                               0
  X0065B                    1.E6                                               0
C LT SVICEN-SMARIA3 - Dados ASPEN - B1 e B0 idem LT FAR-NPR2 arq. excel
-1SM323CSVI23C            .580761.2922.00506  81.3 0 0                         0
-2SM323ASVI23A            .08979.49842.00684  81.3 0 0                         0
-3SM323BSVI23B                                                                 0
C LT D. Franc. - Sta. Maria 3 C2 - Dados do ASPEN
-1SM323CDFR23C            .460391.7033.00615  64.3 0 0                         0
-2SM323ADFR23A            .09609.48836.00878  64.3 0 0                         0
-3SM323BDFR23B                                                                 0
C LT D. Franc. - Sta. Maria 3 C1 - Dados do ASPEN
-1SM323CDFR23C            .43293 1.213 .0061 70.26 0 0                         0
-2SM323ADFR23A            .08433.47057.00872 70.26 0 0                         0
-3SM323BDFR23B                                                                 0
C LT 525kV Itá - S. Santiago C1
-1SSA52CYTA52C             .34641.3191 .0083 186.6 0 0                         0
-2SSA52AYTA52A             .0254.32018.01366 186.6 0 0                         0
-3SSA52BYTA52B                                                                 0
C LT 525kV Itá - S. Santiago C2
-1SSA52CYTA52C             .40671.2418 .0085  190. 0 0                         0
-2SSA52AYTA52A             .0265.33628 .0131  190. 0 0                         0
-3SSA52BYTA52B                                                                 0
C LT 525kV Itá - S. Ângelo C1
-1YTA52CSTA52C             .29451.2356.00902 222.5 0 0                         0
-2YTA52ASTA52A              .025.33051.01307 222.5 0 0                         0
-3YTA52BSTA52B                                                                 0
C LT 525kV Itá - S. Ângelo C2
-1YTA52CSTA52C             .29451.2356.00902237.15 0 0                         0
-2YTA52ASTA52A              .025.33051.01307237.15 0 0                         0
-3YTA52BSTA52B                                                                 0
C LT 525kV S. Ângelo - Garabi 1
-1STA52CX0066C             .29451.2354  .009 137.5 0 0                         0
-2STA52AX0066A              .025.33062 .0131 137.5 0 0                         0
-3STA52BX0066B                                                                 0
C LT 525kV S. Ângelo - Garabi 2
-1STA52CX0067C             .29451.2354  .009138.84 0 0                         0
-2STA52AX0067A              .025.33062 .0131138.84 0 0                         0
-3STA52BX0067B                                                                 0
C LT 230kV STA - STA2
-1STA23CSA223C              .291 1.269  .009    6. 0 0                         0
-2STA23ASA223A             .0441 .3262.01245    6. 0 0                         0
-3STA23BSA223B                                                                 0
C LT 230kV S. Angelo2 - Ijui2
-1SA223CIJ223C             .4455 1.249.00631 43.22 0 0                         0
-2SA223AIJ223A             .1076 .5031.00873 43.22 0 0                         0
-3SA223BIJ223B                                                                 0
C LT 230kV S. Angelo2 - S. Maria3
-1SA223CSM323C             .30451.2414 .0126  180. 0 0                         0
-2SA223ASM323A             .0505 .2466.01744  180. 0 0                         0
-3SA223BSM323B                                                                 0
C LT 230kV S. Angelo - S. Rosa C1
-1STA23CSRO23C             .3449 1.687.00612   50. 0 0                         0
-2STA23ASRO23A             .0846 .4634.00847   50. 0 0                         0
-3STA23BSRO23B                                                                 0
C LT 230kV S. Angelo - S. Rosa C1
-1STA23CSRO23C             .3536 1.378.00574   54. 0 0                         0
-2STA23ASRO23A             .0882  .481.00794   54. 0 0                         0
-3STA23BSRO23B                                                                 0
C LT 230kV S. Rosa - Guarita
-1SRO23CGUR23C              .471 1.293 .0062   93. 0 0                         0
-2SRO23AGUR23A             .1007 .5045.00858   93. 0 0                         0
-3SRO23BGUR23B                                                                 0
C LT 230kV Livramento3 - S. Maria3
C      LT 230KV LIVRAMENTO3 - S.MARIA 3 
$VINTAGE, 1
-1LI323AT16LIA             4.16236E-01 6.64221E+02 2.15065E+05-37.3300E+00 1  3
-2LI323BT16LIB             4.31937E-02 3.05506E+02 2.92661E+05-37.3300E+00 1  3
-3LI323CT16LIC             4.04109E-02 2.55030E+02 2.95434E+05-37.3300E+00 1  3
$VINTAGE, 0
  0.62504635 -0.68879570 -0.41680627
  0.00000000  0.00000000  0.00000000
  0.51855045 -0.00277920  0.81712951
  0.00000000  0.00000000  0.00000000
  0.58345736  0.72495018 -0.39821086
  0.00000000  0.00000000  0.00000000
$VINTAGE, 1
-1MEIOB T16LIB             4.16236E-01 6.64221E+02 2.15065E+05-74.6600E+00 1  3
-2MEIOC T16LIC             4.31937E-02 3.05506E+02 2.92661E+05-74.6600E+00 1  3
-3MEIOA T16LIA             4.04109E-02 2.55030E+02 2.95434E+05-74.6600E+00 1  3
$VINTAGE, 0
  0.62504635 -0.68879570 -0.41680627
  0.00000000  0.00000000  0.00000000
  0.51855045 -0.00277920  0.81712951
  0.00000000  0.00000000  0.00000000
  0.58345736  0.72495018 -0.39821086
  0.00000000  0.00000000  0.00000000
$VINTAGE, 1
-1MEIOC T16SMC             4.16236E-01 6.64221E+02 2.15065E+05-74.6600E+00 1  3
-2MEIOA T16SMA             4.31937E-02 3.05506E+02 2.92661E+05-74.6600E+00 1  3
-3MEIOB T16SMB             4.04109E-02 2.55030E+02 2.95434E+05-74.6600E+00 1  3
$VINTAGE, 0
  0.62504635 -0.68879570 -0.41680627
  0.00000000  0.00000000  0.00000000
  0.51855045 -0.00277920  0.81712951
  0.00000000  0.00000000  0.00000000
  0.58345736  0.72495018 -0.39821086
  0.00000000  0.00000000  0.00000000
$VINTAGE, 1
-1SM323AT16SMA             4.16236E-01 6.64221E+02 2.15065E+05-37.3300E+00 1  3
-2SM323BT16SMB             4.31937E-02 3.05506E+02 2.92661E+05-37.3300E+00 1  3
-3SM323CT16SMC             4.04109E-02 2.55030E+02 2.95434E+05-37.3300E+00 1  3
$VINTAGE, 0
  0.62504635 -0.68879570 -0.41680627
  0.00000000  0.00000000  0.00000000
  0.51855045 -0.00277920  0.81712951
  0.00000000  0.00000000  0.00000000
  0.58345736  0.72495018 -0.39821086
  0.00000000  0.00000000  0.00000000
C LT 230kV S. Angelo - Maçambará 3 C1
-1STA23CMA323C             .3298 1.748 .0066  200. 0 0                         0
-2STA23AMA323A             .0583 .4738.00913  200. 0 0                         0
-3STA23BMA323B                                                                 0
C LT 230kV S. Angelo - Maçambará 3 C2
-1STA23CMA323C             .3298 1.748 .0066  200. 0 0                         0
-2STA23AMA323A             .0583 .4738.00913  200. 0 0                         0
-3STA23BMA323B                                                                 0
C LT 230kV S. Angelo - Missões
-1STA23CMIS23C             .4091 1.587.00734   64. 0 0                         0
-2STA23AMIS23A             .0984 .5472.01016   64. 0 0                         0
-3STA23BMIS23B                                                                 0
C LT 230kV Missões - S. Borja
-1MIS23CSBO23C             .3778 1.448.00559  112. 0 0                         0
-2MIS23ASBO23A             .0927 .5057.00773  112. 0 0                         0
-3MIS23BSBO23B                                                                 0
C LT 230kV Maçambará 3 - Maçambara C1
-1MA323CMCM23C             .3298 1.748 .0066    5. 0 0                         0
-2MA323AMCM23A             .0583 .4738.00913    5. 0 0                         0
-3MA323BMCM23B                                                                 0
C LT 230kV Maçambará 3 - Maçambara C2
-1MA323CMCM23C             .3298 1.748 .0066    5. 0 0                         0
-2MA323AMCM23A             .0583 .4738.00913    5. 0 0                         0
-3MA323BMCM23B                                                                 0
C LT 230kV Maçambara3 - Livramento3
C      LT 230KV LIVRAMENTO3 - MACAMBARA3 
$VINTAGE, 1
-1LI323AT16LMA             4.16236E-01 6.64221E+02 2.15065E+05-31.6670E+00 1  3
-2LI323BT16LMB             4.31937E-02 3.05506E+02 2.92661E+05-31.6670E+00 1  3
-3LI323CT16LMC             4.04109E-02 2.55030E+02 2.95434E+05-31.6670E+00 1  3
$VINTAGE, 0
  0.62504635 -0.68879570 -0.41680627
  0.00000000  0.00000000  0.00000000
  0.51855045 -0.00277920  0.81712951
  0.00000000  0.00000000  0.00000000
  0.58345736  0.72495018 -0.39821086
  0.00000000  0.00000000  0.00000000
$VINTAGE, 1
-1MEI-B T16LMB             4.16236E-01 6.64221E+02 2.15065E+05-62.6670E+00 1  3
-2MEI-C T16LMC             4.31937E-02 3.05506E+02 2.92661E+05-62.6670E+00 1  3
-3MEI-A T16LMA             4.04109E-02 2.55030E+02 2.95434E+05-62.6670E+00 1  3
$VINTAGE, 0
  0.62504635 -0.68879570 -0.41680627
  0.00000000  0.00000000  0.00000000
  0.51855045 -0.00277920  0.81712951
  0.00000000  0.00000000  0.00000000
  0.58345736  0.72495018 -0.39821086
  0.00000000  0.00000000  0.00000000
$VINTAGE, 1
-1MEI-C T16MAC             4.16236E-01 6.64221E+02 2.15065E+05-62.6670E+00 1  3
-2MEI-A T16MAA             4.31937E-02 3.05506E+02 2.92661E+05-62.6670E+00 1  3
-3MEI-B T16MAB             4.04109E-02 2.55030E+02 2.95434E+05-62.6670E+00 1  3
$VINTAGE, 0
  0.62504635 -0.68879570 -0.41680627
  0.00000000  0.00000000  0.00000000
  0.51855045 -0.00277920  0.81712951
  0.00000000  0.00000000  0.00000000
  0.58345736  0.72495018 -0.39821086
  0.00000000  0.00000000  0.00000000
$VINTAGE, 1
-1MA323AT16MAA             4.16236E-01 6.64221E+02 2.15065E+05-31.6670E+00 1  3
-2MA323BT16MAB             4.31937E-02 3.05506E+02 2.92661E+05-31.6670E+00 1  3
-3MA323CT16MAC             4.04109E-02 2.55030E+02 2.95434E+05-31.6670E+00 1  3
$VINTAGE, 0
  0.62504635 -0.68879570 -0.41680627
  0.00000000  0.00000000  0.00000000
  0.51855045 -0.00277920  0.81712951
  0.00000000  0.00000000  0.00000000
  0.58345736  0.72495018 -0.39821086
  0.00000000  0.00000000  0.00000000
C TF 1 230/69/13,8 Missões - 50 MVA - TOSHIBA
  TRANSFORMER              .1115 352.2X0017A  1.E6                             0
    0.1419432063    448.32376358
    0.1534132802    473.23063934
    0.1686716711    498.13751509
    0.2169565479    523.04439085
      0.34305339     547.9512666
            100.    566.91252066
            9999
 1MIS23C                   2.06357.734132.79
 2MIS69C                    .114-.418239.837
 3X0018CXX0019               .04 1.689  13.8
  TRANSFORMER X0017A                  X0017B                                   0
 1MIS23A      
 2MIS69A      
 3X0018AXX0019
  TRANSFORMER X0017A                  X0017C                                   0
 1MIS23B      
 2MIS69B      
 3X0018BXX0019
C TF 2 230/69/13,8 Missões - 50 MVA - SIEMENS
  TRANSFORMER               .094 352.2X0020A  1.E6                             0
    0.1064574047    398.51001208
    0.1206675173    423.41688783
    0.1636384194    448.32376358
    0.3020396098    473.23063934
    0.6256028238    498.13751509
    1.9060033381    523.04439085
    3.5793972877     547.9512666
            100.    566.05378719
            9999
 1MIS23C                   2.06357.734132.79
 2MIS69C                    .114-.418239.837
 3X0021CXX0022               .04 1.689  13.8
  TRANSFORMER X0020A                  X0020B                                   0
 1MIS23A      
 2MIS69A      
 3X0021AXX0022
  TRANSFORMER X0020A                  X0020C                                   0
 1MIS23B      
 2MIS69B      
 3X0021BXX0022
C TF 3 230/69/13,8 Missões - 50 MVA - SIEMENS
  TRANSFORMER               .094 352.2X0023A  1.E6                             0
    0.1064574047    398.51001208
    0.1206675173    423.41688783
    0.1636384194    448.32376358
    0.3020396098    473.23063934
    0.6256028238    498.13751509
    1.9060033381    523.04439085
    3.5793972877     547.9512666
            100.    566.05378719
            9999
 1MIS23C                   2.06357.734132.79
 2MIS69C                    .114-.418239.837
 3X0024CXX0025               .04 1.689  13.8
  TRANSFORMER X0023A                  X0023B                                   0
 1MIS23A      
 2MIS69A      
 3X0024AXX0025
  TRANSFORMER X0023A                  X0023C                                   0
 1MIS23B      
 2MIS69B      
 3X0024BXX0025
C TF 1 230/69/13,8 S. Rosa - 83 MVA
  TRANSFORMER             1.2859 352.2X0026A  1.E6                             0
    1.9105947756    523.04439085
    3.2935402377     547.9512666
            100.    558.15033514
            9999
 1SRO23C                   .0001 35.08132.79
 2SRO69C                   .0001-.193839.837
 3X0027CXX0028             .0001.18662  13.8
  TRANSFORMER X0026A                  X0026B                                   0
 1SRO23A      
 2SRO69A      
 3X0027AXX0028
  TRANSFORMER X0026A                  X0026C                                   0
 1SRO23B      
 2SRO69B      
 3X0027BXX0028
C TF 2 230/69/13,8 S. Rosa - 83 MVA
  TRANSFORMER             1.1952 352.2X0029A  1.E6                             0
     1.775948089    523.04439085
    3.1701671736     547.9512666
            100.    558.15033514
            9999
 1SRO23C                   .000134.503132.79
 2SRO69C                   .0001-.129339.837
 3X0030CXX0031             .0001.18812  13.8
  TRANSFORMER X0029A                  X0029B                                   0
 1SRO23A      
 2SRO69A      
 3X0030AXX0031
  TRANSFORMER X0029A                  X0029C                                   0
 1SRO23B      
 2SRO69B      
 3X0030BXX0031
C TF 3 230/69/13,8 S. Rosa - 83 MVA
  TRANSFORMER               .379 352.2X0032A  1.E6                             0
           0.589         547.941
          1.4732         572.847
          2.1735         597.765
         29.9319         622.672
           132.7         761.652
            9999
 1SRO23C                   .0001 35.08132.79
 2SRO69C                   .0001-.193839.837
 3X0033CXX0034             .0001.18662  13.8
  TRANSFORMER X0032A                  X0032B                                   0
 1SRO23A      
 2SRO69A      
 3X0033AXX0034
  TRANSFORMER X0032A                  X0032C                                   0
 1SRO23B      
 2SRO69B      
 3X0033BXX0034
C TF 1 230/69/13,8 Ijuí 2 - 83 MVA
  TRANSFORMER              .2807 352.2X0035A  1.E6                             0
           0.502          627.65
           1.761          645.59
            2.42          657.54
            4.45          669.49
            6.19          681.45
          10.014          693.41
           19.95          705.36
            1.E3         1041.42
            9999
 1IJ223C                   1.164 82.84132.79
 2IJ269C                      .1 -.44339.837
 3X0036CXX0037              .131 3.596  13.8
  TRANSFORMER X0035A                  X0035B                                   0
 1IJ223A      
 2IJ269A      
 3X0036AXX0037
  TRANSFORMER X0035A                  X0035C                                   0
 1IJ223B      
 2IJ269B      
 3X0036BXX0037
C TF 2 230/69/13,8 Ijuí 2 - 83 MVA
  TRANSFORMER              .2807 352.2X0038A  1.E6                             0
           0.502          627.65
           1.761          645.59
            2.42          657.54
            4.45          669.49
            6.19          681.45
          10.014          693.41
           19.95          705.36
            1.E3         1041.42
            9999
 1IJ223C                   1.164 82.84132.79
 2IJ269C                      .1 -.44339.837
 3X0039CXX0040              .131 3.596  13.8
  TRANSFORMER X0038A                  X0038B                                   0
 1IJ223A      
 2IJ269A      
 3X0039AXX0040
  TRANSFORMER X0038A                  X0038C                                   0
 1IJ223B      
 2IJ269B      
 3X0039BXX0040
C TF 1 230/69/13,8 S. Ângelo 2 - 83 MVA
  TRANSFORMER              .2807 352.2X0041A  1.E6                             0
           0.502          627.65
           1.761          645.59
            2.42          657.54
            4.45          669.49
            6.19          681.45
          10.014          693.41
           19.95          705.36
            1.E3         1041.42
            9999
 1SA223C                    2.01 95.64132.79
 2SA269C                    .152 -.51439.837
 3X0042CXX0043              .056  .588  13.8
  TRANSFORMER X0041A                  X0041B                                   0
 1SA223A      
 2SA269A      
 3X0042AXX0043
  TRANSFORMER X0041A                  X0041C                                   0
 1SA223B      
 2SA269B      
 3X0042BXX0043
C TF 2 230/69/13,8 S. Ângelo 2 - 83 MVA
  TRANSFORMER              .2807 352.2X0044A  1.E6                             0
           0.502          627.65
           1.761          645.59
            2.42          657.54
            4.45          669.49
            6.19          681.45
          10.014          693.41
           19.95          705.36
            1.E3         1041.42
            9999
 1SA223C                    2.01 95.64132.79
 2SA269C                    .152 -.51439.837
 3X0045CXX0046              .056  .588  13.8
  TRANSFORMER X0044A                  X0044B                                   0
 1SA223A      
 2SA269A      
 3X0045AXX0046
  TRANSFORMER X0044A                  X0044C                                   0
 1SA223B      
 2SA269B      
 3X0045BXX0046
C Reator 150 Mvar Manobrável da LT NSR - YTA
  NSR52C                        1837.5                                         0
  NSR52A                        1837.5                                         0
  NSR52B                        1837.5                                         0
C Reator 150 Mvar Manobrável da LT NSR - YTA
  NSR52CX0047C                  1837.5                                         0
  NSR52AX0047A                  1837.5                                         0