BEGIN NEW DATA CASE
C --------------------------------------------------------
C Generated by ATPDRAW  abril, quarta-feira 26, 2017
C A Bonneville Power Administration program
C by H. K. Høidalen at SEfAS/NTNU - NORWAY 1994-2015
C --------------------------------------------------------
POWER FREQUENCY                      60.
$DUMMY, XYZ000
C  dT  >< Tmax >< Xopt >< Copt ><Epsiln>
   1.E-6     .15     60.     60.        
     500       1       0       1       0       0       0       1     200
       1       0       0       0       1      -1                               0
C Fonte de tensão da UTE JLACAM
/SOURCE
14X0072A  10859.4045       60.       10.                           -1.      100.
14X0072B  10859.4045       60.     -110.                           -1.      100.
14X0072C  10859.4045       60.     -230.                           -1.      100.
C Fonte de tensão na SE 230kV Tubarão
/SOURCE
14X0074A  195959.179       60.       15.                           -1.      100.
14X0074B  195959.179       60.     -105.                           -1.      100.
14X0074C  195959.179       60.     -225.                           -1.      100.
C Fonte de tensão na SE 230kV JLaceA
/SOURCE
14X0073A  184119.979       60.      27.5                           -1.      100.
14X0073B  184119.979       60.     -92.5                           -1.      100.
14X0073C  184119.979       60.    -212.5                           -1.      100.
C Fonte de tensão na SE 230kV  Siderópolis
/SOURCE
14X0075A  179629.248       60.       8.5                           -1.      100.
14X0075B  179629.248       60.    -111.5                           -1.      100.
14X0075C  179629.248       60.    -231.5                           -1.      100.
C Fonte de tensão na SE 525kV AbdonBatista   28.27
/SOURCE
14X0076A  439275.161       60.       30.                           -1.      100.
14X0076B  439275.161       60.      -90.                           -1.      100.
14X0076C  439275.161       60.     -210.                           -1.      100.
C Fonte de tensão na SE 525kV Blumenau
/SOURCE
14X0077A   428701.53       60.       8.1                           -1.      100.
14X0077B   428701.53       60.    -111.9                           -1.      100.
14X0077C   428701.53       60.    -231.9                           -1.      100.
C Fonte de tensão na SE 138kV Itajaf
/SOURCE
14X0082A  112676.528       60.      -5.5                           -1.      100.
14X0082B  112676.528       60.    -125.5                           -1.      100.
14X0082C  112676.528       60.    -245.5                           -1.      100.
C Fonte de tensão na SE 138kV Tijuca
/SOURCE
14X0083A  112676.528       60.        8.                           -1.      100.
14X0083B  112676.528       60.     -112.                           -1.      100.
14X0083C  112676.528       60.     -232.                           -1.      100.
C Fonte de tensão na SE 230kV Blumenau
/SOURCE
14X0094A  188202.462       60.     -12.8                           -1.      100.
14X0094B  188202.462       60.    -132.8                           -1.      100.
14X0094C  188202.462       60.    -252.8                           -1.      100.
C Fonte de tensão na SE 230kV  Gaspar
/SOURCE
14X0095A  192284.945       60.       19.                           -1.      100.
14X0095B  192284.945       60.     -101.                           -1.      100.
14X0095C  192284.945       60.     -221.                           -1.      100.
C Fonte de tensão na SE 138kV  Rocado
/SOURCE
14X0096A  112676.528       60.       10.                           -1.      100.
14X0096B  112676.528       60.     -110.                           -1.      100.
14X0096C  112676.528       60.     -230.                           -1.      100.
C Fonte de tensão na SE 138kV PalhocB
/SOURCE
14X0097A  112676.528       60.       90.                           -1.      100.
14X0097B  112676.528       60.      -30.                           -1.      100.
14X0097C  112676.528       60.     -150.                           -1.      100.
C Fonte de tensão da UTE JLACAM
/SOURCE
14X0098A  11308.4776       60.       10.                           -1.      100.
14X0098B  11308.4776       60.     -110.                           -1.      100.
14X0098C  11308.4776       60.     -230.                           -1.      100.
C Fonte de tensão da UTE JLACAM
/SOURCE
14X0099A  11659.5712       60.       10.                           -1.      100.
14X0099B  11659.5712       60.     -110.                           -1.      100.
14X0099C  11659.5712       60.     -230.                           -1.      100.
/SWITCH
  BI230AT_BI_A       -1.      1.E3                                             0
  BI230BT_BI_B       -1.      1.E3                                             0
  BI230CT_BI_C       -1.      1.E3                                             0
/SWITCH
  X0019ABL525A                                        MEASURING                0
  X0019BBL525B                                        MEASURING                0
  X0019CBL525C                                        MEASURING                0
/SWITCH
  X0036ABL230A                                        MEASURING                0
  X0036BBL230B                                        MEASURING                0
  X0036CBL230C                                        MEASURING                0
/SWITCH
  X0037AGA230A                                        MEASURING                0
  X0037BGA230B                                        MEASURING                0
  X0037CGA230C                                        MEASURING                0
/SWITCH
  X0018AAB525A                                        MEASURING                0
  X0018BAB525B                                        MEASURING                0
  X0018CAB525C                                        MEASURING                0
/SWITCH
  X0015AJA230A                                        MEASURING                0
  X0015BJA230B                                        MEASURING                0
  X0015CJA230C                                        MEASURING                0
/SWITCH
  X0017ASI230A                                        MEASURING                0
  X0017BSI230B                                        MEASURING                0
  X0017CSI230C                                        MEASURING                0
/SWITCH
  X0016ATU230A                                        MEASURING                0
  X0016BTU230B                                        MEASURING                0
  X0016CTU230C                                        MEASURING                0
/SWITCH
  X0038ARO138A                                        MEASURING                0
  X0038BRO138B                                        MEASURING                0
  X0038CRO138C                                        MEASURING                0
/SWITCH
  X0027ATI138A                                        MEASURING                0
  X0027BTI138B                                        MEASURING                0
  X0027CTI138C                                        MEASURING                0
/SWITCH
  X0026AIT138A                                        MEASURING                0
  X0026BIT138B                                        MEASURING                0
  X0026CIT138C                                        MEASURING                0
/SWITCH
  X0039APA138A                                        MEASURING                0
  X0039BPA138B                                        MEASURING                0
  X0039CPA138C                                        MEASURING                0
/SWITCH
  X0014AJA13.A                                        MEASURING                0
  X0014BJA13.B                                        MEASURING                0
  X0014CJA13.C                                        MEASURING                0
/SWITCH
  X0043AJB113A                                        MEASURING                0
  X0043BJB113B                                        MEASURING                0
  X0043CJB113C                                        MEASURING                0
/SWITCH
  X0041AJB213A                                        MEASURING                0
  X0041BJB213B                                        MEASURING                0
  X0041CJB213C                                        MEASURING                0
/SWITCH
  BI230AX0108A       10.      1.E3                                             0
  BI230BX0108B       10.      1.E3                                             0
  BI230CX0108C       10.      1.E3                                             0
/SWITCH
  X0109ARA230A       10.      1.E3                                             0
  X0109BRA230B       10.      1.E3                                             0
  X0109CRA230C       10.      1.E3                                             0
/SWITCH
  T_RA_ARA230A       -1.      1.E3                                             0
  T_RA_BRA230B       -1.      1.E3                                             0
  T_RA_CRA230C       -1.      1.E3                                             0
C        1         2         3         4         5         6         7         8
C 345678901234567890123456789012345678901234567890123456789012345678901234567890
C Transformador 1 da SE 500/230/13,8kV Blumenau
/BRANCH
  TRANSFORMER             .731581193.9X0006A                                   0
     0.731578261      1193.91509
      3.60434464      1250.76819
      7.36988812      1307.62129
       66.464657      1364.47439
      307.758079      1409.95687
      663.337584      1481.78508
            9999
 1BL525A                  .098312.9492303.11
 2BL230A                  .205436.1628133.06
 3X0069AX0069B            .00285.08556  13.8
  TRANSFORMER X0006A                  X0006B                                   0
 1BL525B      
 2BL230B      
 3X0069BX0069C
  TRANSFORMER X0006A                  X0006C                                   0
 1BL525C      
 2BL230C      
 3X0069CX0069A
/BRANCH
  X0069A                    1.E6                                               0
  X0069B                    1.E6                                               0
  X0069C                    1.E6                                               0
C Transformador 2 da SE 500/230/13,8kV Blumenau
/BRANCH
  TRANSFORMER             .731581193.9X0007A                                   0
     0.731578261      1193.91509
      3.60434464      1250.76819
      7.36988812      1307.62129
       66.464657      1364.47439
      307.758079      1409.95687
      663.337584      1481.78508
            9999
 1BL525A                  .275638.2688303.11
 2BL230A                  .205435.0784133.06
 3X0070AX0070B            .00285.08237  13.8
  TRANSFORMER X0007A                  X0007B                                   0
 1BL525B      
 2BL230B      
 3X0070BX0070C
  TRANSFORMER X0007A                  X0007C                                   0
 1BL525C      
 2BL230C      
 3X0070CX0070A
/BRANCH
  X0070A                    1.E6                                               0
  X0070B                    1.E6                                               0
  X0070C                    1.E6                                               0
C Transformador 3 da SE 500/230/13,8kV Blumenau
/BRANCH
  TRANSFORMER             .731581193.9X0008A                                   0
     0.731578261      1193.91509
      3.60434464      1250.76819
      7.36988812      1307.62129
       66.464657      1364.47439
      307.758079      1409.95687
      663.337584      1481.78508
            9999
 1BL525A                  .272878.1861303.11
 2BL230A                  .16963 5.089133.06
 3X0071AX0071B            .00274.08214  13.8
  TRANSFORMER X0008A                  X0008B                                   0
 1BL525B      
 2BL230B      
 3X0071BX0071C
  TRANSFORMER X0008A                  X0008C                                   0
 1BL525C      
 2BL230C      
 3X0071CX0071A
/BRANCH
  X0071A                    1.E6                                               0
  X0071B                    1.E6                                               0
  X0071C                    1.E6                                               0
C LT 525kV Blumenau - Biguaçu
/BRANCH
-1BL525ABI525A            .351661.3274 3.443   87. 0 0                         0
-2BL525BBI525B            .01866 .32665.7384   87. 0 0                         0
-3BL525CBI525C                                                                 0
C LT 525kV AbdonBatista - Biguaçu
/BRANCH
-1AB525ABI525A            .34277 1.1953.5043 234.8 0 0                         0
-2AB525BBI525B            .01761.285255.8405 234.8 0 0                         0
-3AB525CBI525C                                                                 0
C LT 525kV AbdonBatista - Siderópolis2 C1
/BRANCH
-1AB525AS2525A             .27141.08243.0495  261. 0 0                         0
-2AB525BS2525B            .01478.236555.0825  261. 0 0                         0
-3AB525CS2525C                                                                 0
C Transformador 1 da SE 525/230kV Siderópolis2
/BRANCH
  TRANSFORMER             .731581193.9X0009A                                   0
     0.731578261      1193.91509
      3.60434464      1250.76819
      7.36988812      1307.62129
       66.464657      1364.47439
      307.758079      1409.95687
      663.337584      1481.78508
            9999
 1S2525A                  .5696317.089303.11
 2S2230A                  .109333.2798132.79
 3X0010AX0010B              .015    .6  13.8
  TRANSFORMER X0009A                  X0009B                                   0
 1S2525B      
 2S2230B      
 3X0010BX0010C
  TRANSFORMER X0009A                  X0009C                                   0
 1S2525C      
 2S2230C      
 3X0010CX0010A
C Transformador 2 da SE 525/230kV Siderópolis2
/BRANCH
  TRANSFORMER             .731581193.9X0011A                                   0
     0.731578261      1193.91509
      3.60434464      1250.76819
      7.36988812      1307.62129
       66.464657      1364.47439
      307.758079      1409.95687
      663.337584      1481.78508
            9999
 1S2525A                  .5696317.089303.11
 2S2230A                  .109333.2798132.79
 3X0012AX0012B              .015    .6  13.8
  TRANSFORMER X0011A                  X0011B                                   0
 1S2525B      
 2S2230B      
 3X0012BX0012C
  TRANSFORMER X0011A                  X0011C                                   0
 1S2525C      
 2S2230C      
 3X0012CX0012A
C LT 230kV Siderópolis - Siderópolis2 C2
/BRANCH
1 S2230ASI230A            0.22920.7935 2.736
2 S2230BSI230B            0.12340.2645-0.4210.22920.7935 2.736
3 S2230CSI230C            0.12340.2645-0.4210.12340.2645-0.4210.22920.7935 2.736
C LT 138kV Dester - Ilhasu
/BRANCH
1 DE138AIS138A             0.2731.0728 5.279
2 DE138BIS138B            0.0825 0.273-0.812 0.2731.0728 5.279
3 DE138CIS138C            0.0825 0.273-0.8120.0825 0.273-0.812 0.2731.0728 5.279
C LT 525kV AbdonBatista - Siderópolis2 C2
/BRANCH
-1AB525AS2525A             .27141.08243.0495  261. 0 0                         0
-2AB525BS2525B            .01478.236555.0825  261. 0 0                         0
-3AB525CS2525C                                                                 0
C LT 230kV Siderópolis - JLaceB C1
/BRANCH
-1SI230AJB230A            .402691.15951.9319   49. 0 0                         0
-2SI230BJB230B             .1013.522523.2198   49. 0 0                         0
-3SI230CJB230C                                                                 0
C LT 230kV Siderópolis - JLaceB C2
/BRANCH
-1SI230AJB230A            .386061.10531.9262   47. 0 0                         0
-2SI230BJB230B            .10141.521233.2104   47. 0 0                         0
-3SI230CJB230C                                                                 0
C LT 230kV Siderópolis - Tubarão
/BRANCH
-1TU230ASI230A            .470271.34142.3128  37.2 0 0                         0
-2TU230BSI230B            .10096.524593.8547  37.2 0 0                         0
-3TU230CSI230C                                                                 0
C LT 230kV JLaceB - Tubarão
/BRANCH
-1TU230AJB230A            .468651.33674.1007  25.7 0 0                         0
-2TU230BJB230B            .10086.522786.8344  25.7 0 0                         0
-3TU230CJB230C                                                                 0
C LT 230kV JLaceA - JLaceB C2
/BRANCH
1 JB230AJA230A            0.15870.4761 2.097
2 JB230BJA230B            0.10580.1058-0.3230.15870.4761 2.097
3 JB230CJA230C            0.10580.1058-0.3230.10580.1058-0.3230.15870.4761 2.097
C LT 230kV Siderópolis - Siderópolis2 C1
/BRANCH
1 S2230ASI230A            0.22920.7935 2.736
2 S2230BSI230B            0.12340.2645-0.4210.22920.7935 2.736
3 S2230CSI230C            0.12340.2645-0.4210.12340.2645-0.4210.22920.7935 2.736
C Transformador 1 da SE 230/13,8kV JLaceA
/BRANCH
  TRANSFORMER             .39511523.05X0013A                                   0
     0.395112042       523.04833
      1.94664064      547.955393
      3.98034182      572.862456
      35.8963459       597.76952
      166.214511       617.69517
        358.2565      649.162754
            9999
 1JA230A                   .562516.875132.79
 2JA13.AJA13.B            .00608.18225  13.8
  TRANSFORMER X0013A                  X0013B                                   0
 1JA230B      
 2JA13.BJA13.C
  TRANSFORMER X0013A                  X0013C                                   0
 1JA230C      
 2JA13.CJA13.A
C Impedância da máquina da UTE JLACM
/BRANCH
  X0014AX0072A            .00181 .2031                                         0
  X0014BX0072B            .00181 .2031                                         0
  X0014CX0072C            .00181 .2031                                         0
C Impedância do equivalente na SE 230kV JLaceA
/BRANCH
51X0073AX0015A            1.4172   29.691183
52X0073BX0015B             4.692    97.19317
53X0073CX0015C
C Impedância do equivalente na SE 230kV Tubarão
/BRANCH
51X0074AX0016A            2.8832   40.920266
52X0074BX0016B            33.322   182.15586
53X0074CX0016C
C Impedância do equivalente na SE 230kV Siderópolis
/BRANCH
51X0075AX0017A            2.3864    18.62609
52X0075BX0017B            21.362   129.98588
53X0075CX0017C
C Impedância do equivalente na SE 525kV AbdonBatista
/BRANCH
51X0076AX0018A            5.6084  31.3606125
52X0076BX0018B            .9983119.747704375
53X0076CX0018C
C Impedância do equivalente na SE 525kV Blumenau
/BRANCH
51X0077AX0019A            35.087148.34964375
52X0077BX0019B            4.1928  57.0488625
53X0077CX0019C
C Transformador 1 da SE 525/230kV Biguaçu
/BRANCH
  TRANSFORMER             .731581193.9X0020A                                   0
     0.731578261      1193.91509
      3.60434464      1250.76819
      7.36988812      1307.62129
       66.464657      1364.47439
      307.758079      1409.95687
      663.337584      1481.78508
            9999
 1BI525A                  1.790653.719303.11
 2BI230A                  .00899-.2698138.37
 3X0103AX0103B            .01882.56467  13.8
  TRANSFORMER X0020A                  X0020B                                   0
 1BI525B      
 2BI230B      
 3X0103BX0103C
  TRANSFORMER X0020A                  X0020C                                   0
 1BI525C      
 2BI230C      
 3X0103CX0103A
C Transformador 2 da SE 525/230kV Biguaçu
/BRANCH
  TRANSFORMER             .731581193.9X0021A                                   0
     0.731578261      1193.91509
      3.60434464      1250.76819
      7.36988812      1307.62129
       66.464657      1364.47439
      307.758079      1409.95687
      663.337584      1481.78508
            9999
 1BI525A                  2.572577.175303.11
 2BI230A                  .01534-4.602138.37
 3X0104AX0104B            .02104.63112  13.8
  TRANSFORMER X0021A                  X0021B                                   0
 1BI525B      
 2BI230B      
 3X0104BX0104C
  TRANSFORMER X0021A                  X0021C                                   0
 1BI525C      
 2BI230C      
 3X0104CX0104A
C Transformador 3 da SE 230/138kV Biguaçu
/BRANCH
  TRANSFORMER             .37275523.05X0022A                                   0
     0.372747209       523.04833
      1.83645343      547.955393
      3.75503945      572.862456
      33.8644773       597.76952
      156.806143       617.69517
      337.977831      649.162754
            9999
 1BI230A                  .9139427.418132.79
 2BI138A                  .061131.833977.125
 3X0078AX0078B            .042261.2679  13.8
  TRANSFORMER X0022A                  X0022B                                   0
 1BI230B      
 2BI138B      
 3X0078BX0078C
  TRANSFORMER X0022A                  X0022C                                   0
 1BI230C      
 2BI138C      
 3X0078CX0078A
/BRANCH
  X0078A                    1.E6                                               0
  X0078B                    1.E6                                               0
  X0078C                    1.E6                                               0
C Transformador 2 da SE 230/138kV Biguaçu
/BRANCH
  TRANSFORMER             .37275523.05X0023A                                   0
     0.372747209       523.04833
      1.83645343      547.955393
      3.75503945      572.862456
      33.8644773       597.76952
      156.806143       617.69517
      337.977831      649.162754
            9999
 1BI230A                  .9139427.418132.79
 2BI138A                  .061131.833977.125
 3X0081AX0081B            .042261.2679  13.8
  TRANSFORMER X0023A                  X0023B                                   0
 1BI230B      
 2BI138B      
 3X0081BX0081C
  TRANSFORMER X0023A                  X0023C                                   0
 1BI230C      
 2BI138C      
 3X0081CX0081A
C Transformador 1 da SE 230/138kV Biguaçu
/BRANCH
  TRANSFORMER             .37275523.05X0024A                                   0
     0.372747209       523.04833
      1.83645343      547.955393
      3.75503945      572.862456
      33.8644773       597.76952
      156.806143       617.69517
      337.977831      649.162754
            9999
 1BI230A                  .5637416.912132.79
 2BI138A                  .186445.593277.125
 3X0080AX0080B            .04333   1.3  13.8
  TRANSFORMER X0024A                  X0024B                                   0
 1BI230B      
 2BI138B      
 3X0080BX0080C
  TRANSFORMER X0024A                  X0024C                                   0
 1BI230C      
 2BI138C      
 3X0080CX0080A
C Transformador 4 da SE 230/138kV Biguaçu
/BRANCH
  TRANSFORMER             .37275523.05X0025A                                   0
     0.372747209       523.04833
      1.83645343      547.955393
      3.75503945      572.862456
      33.8644773       597.76952
      156.806143       617.69517
      337.977831      649.162754
            9999
 1BI230A                  .9139427.418132.79
 2BI138A                  .061131.833977.125
 3X0079AX0079B            .042261.2679  13.8
  TRANSFORMER X0025A                  X0025B                                   0
 1BI230B      
 2BI138B      
 3X0079BX0079C
  TRANSFORMER X0025A                  X0025C                                   0
 1BI230C      
 2BI138C      
 3X0079CX0079A
/BRANCH
  X0079A                    1.E6                                               0
  X0079B                    1.E6                                               0
  X0079C                    1.E6                                               0
/BRANCH
  X0080A                    1.E6                                               0
  X0080B                    1.E6                                               0
  X0080C                    1.E6                                               0
/BRANCH
  X0081A                    1.E6                                               0
  X0081B                    1.E6                                               0
  X0081C                    1.E6                                               0
C LT 138kV Biguaçu - Biguaçu SC
/BRANCH
-1BS138ABI138A            .450041.86992.4093   8.5 0 0                         0
-2BS138BBI138B            .14339.474984.0155   8.5 0 0                         0
-3BS138CBI138C                                                                 0
C LT 138kV Biguaçu - Itajaf
/BRANCH
-1IT138ABI138A             .4157 1.4552.1735   70. 0 0                         0
-2IT138BBI138B            .12787.487533.6224   70. 0 0                         0
-3IT138CBI138C                                                                 0
C Impedância do equivalente na SE 138kV Itajaf
/BRANCH
51X0082AX0026A            2.6995   25.323668
52X0082BX0026B            35.723 150.2133588
53X0082CX0026C
C LT 138kV Biguaçu - Tijuca C1
/BRANCH
-1TI138ABI138A            .336861.17572.1316  33.7 0 0                         0
-2TI138BBI138B            .12545.475823.5526  33.7 0 0                         0
-3TI138CBI138C                                                                 0
C Impedância do equivalente na SE 138kV Tijuca
/BRANCH
51X0083AX0027A            2.6239  21.5559036
52X0083BX0027B            8.7522  119.339226
53X0083CX0027C
C LT 138kV Biguaçu - Tijuca C2
/BRANCH
-1TI138ABI138A            .459021.61372.2134  27.7 0 0                         0
-2TI138BBI138B            .10175.47026 3.689  27.7 0 0                         0
-3TI138CBI138C                                                                 0
C LT 230kV Biguaçu - S. José
/BRANCH
-1BI230ASJ230A            .443821.01771.9061  11.8 0 0                         0
-2BI230BSJ230B            .09863.448313.1768  11.8 0 0                         0
-3BI230CSJ230C                                                                 0
C LT 230kV Dester Cont - Dester Ilha
/BRANCH
-1X0086AX0107A            .14427.3486625.682   4.4 0 0                         0
-2X0086BX0107B            .03607.0961842.804   4.4 0 0                         0
-3X0086CX0107C                                                                 0
C LT 230kV Biguaçu - Palhoc
/BRANCH
-1BI230APA230A            .412931.64992.0963   17. 0 0                         0
-2BI230BPA230B            .07157 .47613.4938   17. 0 0                         0
-3BI230CPA230C                                                                 0
C LT 230kV Biguaçu - JLaceB
/BRANCH
-1BI230AJB230A             .39431.23521.8597 129.5 0 0                         0
-2BI230BJB230B             .0944 .48693.0995 129.5 0 0                         0
-3BI230CJB230C                                                                 0
C LT 230kV JLaceB - Palhoc
/BRANCH
-1PA230AJB230A            .363191.09091.9374 120.6 0 0                         0
-2PA230BJB230B            .10133 .5211 3.229 120.6 0 0                         0
-3PA230CJB230C                                                                 0
C Transformador 4 da SE 230/138/13,8kV Palhoc
/BRANCH
  TRANSFORMER             .55912523.05X0028A                                   0
     0.559120814       523.04833
      2.75468015      547.955393
      5.63255918      572.862456
       50.796716       597.76952
      235.209214       617.69517
      506.966746      649.162754
            9999
 1PA230A                  2.650879.525132.79
 2PA138A                  .11979-3.59479.674
 3X0087AX0087B            .088492.6547  13.8
  TRANSFORMER X0028A                  X0028B                                   0
 1PA230B      
 2PA138B      
 3X0087BX0087C
  TRANSFORMER X0028A                  X0028C                                   0
 1PA230C      
 2PA138C      
 3X0087CX0087A
/BRANCH
  X0087A                    1.E6                                               0
  X0087B                    1.E6                                               0
  X0087C                    1.E6                                               0
C Transformador 3 da SE 230/138/13,8kV Palhoc
/BRANCH
  TRANSFORMER             .55912523.05X0029A                                   0
     0.559120814       523.04833
      2.75468015      547.955393
      5.63255918      572.862456
       50.796716       597.76952
      235.209214       617.69517
      506.966746      649.162754
            9999
 1PA230A                  2.914387.428132.79
 2PA138A                  .15699 -4.7179.674
 3X0088AX0088B            .067532.0259  13.8
  TRANSFORMER X0029A                  X0029B                                   0
 1PA230B      
 2PA138B      
 3X0088BX0088C
  TRANSFORMER X0029A                  X0029C                                   0
 1PA230C      
 2PA138C      
 3X0088CX0088A
/BRANCH
  X0088A                    1.E6                                               0
  X0088B                    1.E6                                               0
  X0088C                    1.E6                                               0
C Transformador 2 da SE 230/138/13,8kV Palhoc
/BRANCH
  TRANSFORMER             .37275523.05X0030A                                   0
     0.372747209       523.04833
      1.83645343      547.955393
      3.75503945      572.862456
      33.8644773       597.76952
      156.806143       617.69517
      337.977831      649.162754
            9999
 1PA230A                  1.477144.314132.79