BEGIN NEW DATA CASE
C --------------------------------------------------------
C Generated by ATPDRAW  maio, terça-feira 16, 2017
C A Bonneville Power Administration program
C by H. K. Høidalen at SEfAS/NTNU - NORWAY 1994-2015
C --------------------------------------------------------
POWER FREQUENCY                      60.
$PREFIX,D:\Work\ATPWork\
$SUFFIX, .LIB
$DUMMY, XYZ000
C  dT  >< Tmax >< Xopt >< Copt ><Epsiln>
C MISCELANEOUS DATA ORIGINAIS
C    1.E-6     .02     60.                
C    10000       1       0       1       1       0       0       1       0
   1.E-6     .01     60.                
   10000       1       0       1       1       0       0       1     200
       1       1       0       0       1      -1                               0
C        1         2         3         4         5         6         7         8
C 345678901234567890123456789012345678901234567890123456789012345678901234567890
C ===== CHAVES PARA MEDIÇÃO DE TENSÕES TEMPORÁRIAS ======
/SWITCH
  RECEPATPRECA        .1      1.e3                                             0
  RECEPBTPRECB        .1      1.e3                                             0
  RECEPCTPRECC        .1      1.e3                                             0
  EMISSATPEMIA        .1      1.e3                                             0
  EMISSBTPEMIB        .1      1.e3                                             0
  EMISSCTPEMIC        .1      1.e3                                             0
  MEIOLATPMEIA        .1      1.e3                                             0
  MEIOLBTPMEIB        .1      1.e3                                             0
  MEIOLCTPMEIC        .1      1.e3                                             0
C ===== CONFIGURACAO DAS VARIAVEIS DE SAIDA =====
/OUTPUT
  TPRECARECEPATPRECBRECEPBTPRECCRECEPC
  TPEMIAEMISSATPEMIBEMISSBTPEMICEMISSC
  TPMEIAMEIOLATPMEIBMEIOLBTPMEICMEIOLC
-5TPRECATPRECBRECEPARECEPBTPRECBTPRECCRECEPBRECEPCTPRECCTPRECARECEPCRECEPA
-5TPEMIATPEMIBEMISSAEMISSBTPEMIBTPEMICEMISSBEMISSCTPEMICTPEMIAEMISSCEMISSA
-5TPMEIATPMEIBMEIOLAMEIOLBTPMEIBTPMEICMEIOLBMEIOLCTPMEICTPMEIAMEIOLCMEIOLA
C ===== FALTA NO FIM DA LINHA =====
/BRANCH
  CURTOA                   1.e-6                                               1
/SWITCH
  RECEPACURTOA       -1.      1.e3                                             0
C ===== CARTÃO PARA TABELAMENTO ESTATÍSTICO =====
/STATISTICS
STATISTICS DATA                2    0.05
 0        100.RECEPA      RECEPB      RECEPC      
-1        100.RECEPARECEPBRECEPBRECEPCRECEPCRECEPA
 0        100.EMISSA      EMISSB      EMISSC      
-1        100.EMISSAEMISSBEMISSBEMISSCEMISSCEMISSA
 0        100.MEIOLA      MEIOLB      MEIOLC      
-1        100.MEIOLAMEIOLBMEIOLBMEIOLCMEIOLCMEIOLA
-2        100.ZZZZZAEMISSAZZZZZBEMISSBZZZZZCEMISSC
-2        100.SATA        SATB        SATC        
-4        100.EMISSA      EMISSB      EMISSC      
FIND
 0            RECEPA      RECEPB      RECEPC      
DISK
RESET
-1            RECEPARECEPBRECEPBRECEPCRECEPCRECEPA
DISK
RESET
 0            EMISSA      EMISSB      EMISSC      
DISK
RESET
-1            EMISSAEMISSBEMISSBEMISSCEMISSCEMISSA
DISK
RESET
 0            MEIOLA      MEIOLB      MEIOLC      
DISK
RESET
-1            MEIOLAMEIOLBMEIOLBMEIOLCMEIOLCMEIOLA
DISK
RESET
-2            ZZZZZAEMISSAZZZZZBEMISSBZZZZZCEMISSC
DISK
RESET
-2            SATA        SATB        SATC        
DISK
RESET
-4            EMISSA      EMISSB      EMISSC      
DISK
RESET
QUIT
C ===== AGORA INICIA OS CARTÕES DO CASO ORIGINAL =====
/BRANCH
C < n1 >< n2 ><ref1><ref2>< R  >< L  >< C  >
C < n1 >< n2 ><ref1><ref2>< R  >< A  >< B  ><Leng><><>0
C LT Areia - Curitiba
-1X0226ACBA52A            .346521.3192 .0083 235.2 0 0                         0
-2X0226BCBA52B            .02531.32027.01366 235.2 0 0                         0
-3X0226CCBA52C                                                                 0
  X0206A                    1.E6                                               0
  X0206B                    1.E6                                               0
  X0206C                    1.E6                                               0
  X0401AX0421A                         43.48                                   0
  X0401BX0421B                         43.48                                   0
  X0401CX0421C                         43.48                                   0
99EMISSC                                                                       4
           1.E-5    67882.250994
             50.          1.07E5
            100.          1.09E5
            200.          1.12E5
            500.          1.15E5
            1.E3          1.18E5
            2.E3          1.24E5
            9999
99EMISSB                                                                       4
           1.E-5    67882.250994
             50.          1.07E5
            100.          1.09E5
            200.          1.12E5
            500.          1.15E5
            1.E3          1.18E5
            2.E3          1.24E5
            9999
99EMISSA                                                                       4
           1.E-5    67882.250994
             50.          1.07E5
            100.          1.09E5
            200.          1.12E5
            500.          1.15E5
            1.E3          1.18E5
            2.E3          1.24E5
            9999
C TRANSFORMADOR I DE PALHOÇA 230/138 (tap em 218kV)
  TRANSFORMER              2.989519.36X0010A  1.E6                             0
      2.98901693      519.364873
          4.6221        542.9594
            100.        560.9545
            9999
 1PAL23A                  2.856671.443125.86
 2X0235A                  1.7178 .000177.907
 3X0236AX0236B            .046387.9669  13.8
  TRANSFORMER X0010A                  X0010B                                   0
 1PAL23B      
 2X0235B      
 3X0236BX0236C
  TRANSFORMER X0010A                  X0010C                                   0
 1PAL23C      
 2X0235C      
 3X0236CX0236A
C LT S. J. Pinhais - Curitiba Leste
-1X0180ACLE23A             .3325  1.46.00525   8.8 0 0                         0
-2X0180BCLE23B             .0795 .4746.00923   8.8 0 0                         0
-3X0180CCLE23C                                                                 0
C LT Bateias - Curitiba II
-1BAT50AX0223A            .342271.3049.00829   38. 0 0                         0
-2BAT50BX0223B            .03291.31676.01367   38. 0 0                         0
-3BAT50CX0223C                                                                 0
  X0178A                    1.E6                                               0
  X0178B                    1.E6                                               0
  X0178C                    1.E6                                               0
C LT Joinville Sul - Gaspar 2
-1X0232AX0204A            .34633 1.319 .0083   20. 0 0                         0
-2X0232BX0204B            .02536.32016.01366   20. 0 0                         0
-3X0232CX0204C                                                                 0
C LT Areia - Bateias
-1X0225ABAT50A            .345811.3169 .0083 220.3 0 0                         0
-2X0225BBAT50B            .02652.31979.01366 220.3 0 0                         0
-3X0225CBAT50C                                                                 0
C LT Umbara - Uberaba
-1X0170AX0169A            .285521.1638.00579  36.5 0 0                         0
-2X0170BX0169B            .10145.48987.00897  36.5 0 0                         0
-3X0170CX0169C                                                                 0
C LT P. Fiscal- Curitiba Leste
-1CLE23AX0211A             .3439 1.478.00543  60.7 0 0                         0
-2CLE23BX0211B             .0985  .502.00875  60.7 0 0                         0
-3CLE23CX0211C                                                                 0
C LT Umbara - Campo Assobio
-1UMB23AX0208A            .286651.1648.00579  20.3 0 0                         0
-2UMB23BX0208B            .09902.48991.00896  20.3 0 0                         0
-3UMB23CX0208C                                                                 0
C SATURAÇÃO TEST REPORT TRAFO KA 3075A001 - JOELHO 1,2  XAC = 417,24 OHMS
  TRANSFORMER             .57105523.05X0011A  1.E6                             0
      0.57105229      523.044391
      1.70405793      572.858142
       2.6888812      597.753465
            100.      698.251289
            9999
 1JNO23A                   .978327.894132.79
 2JNO13A                   .6034 1.71479.674
 3X0178AX0178B             .0166   3.8  13.8
  TRANSFORMER X0011A                  X0011B                                   0
 1JNO23B      
 2JNO13B      
 3X0178BX0178C
  TRANSFORMER X0011A                  X0011C                                   0
 1JNO23C      
 2JNO13C      
 3X0178CX0178A
  X0179A                    1.E6                                               0
  X0179B                    1.E6                                               0
  X0179C                    1.E6                                               0
C SATURAÇÃO TEST REPORT TRAFO KA 3075A001 - JOELHO 1,2  XAC = 417,24 OHMS
  TRANSFORMER             .57105523.05X0012A  1.E6                             0
      0.57105229      523.044391
      1.70405793      572.858142
       2.6888812      597.753465
            100.      698.251289
            9999
 1JNO23A                   .978327.894132.79
 2JNO13A                   .6034 1.71479.674
 3X0179AX0179B             .0166   3.8  13.8
  TRANSFORMER X0012A                  X0012B                                   0
 1JNO23B      
 2JNO13B      
 3X0179BX0179C
  TRANSFORMER X0012A                  X0012C                                   0
 1JNO23C      
 2JNO13C      
 3X0179CX0179A
  X0182A                    1.E6                                               0
  X0182B                    1.E6                                               0
  X0182C                    1.E6                                               0
C TF A
  TRANSFORMER             1.8425523.04X0013A  1.E6                             0
         1.84252       523.04437
         3.40627       547.95129
         6.08992       572.85815
        47.85186       672.48566
            9999
 1X0173A                  1.2696111.99132.79
 2UMB69A                  .04285 .000139.837
 3X0175AX0175B              .013.71472  13.8
  TRANSFORMER X0013A                  X0013B                                   0
 1X0173B      
 2UMB69B      
 3X0175BX0175C
  TRANSFORMER X0013A                  X0013C                                   0
 1X0173C      
 2UMB69C      
 3X0175CX0175A
C TF B
  TRANSFORMER             1.4897523.04X0014A  1.E6                             0
         1.48967       523.04437
         2.75395       547.95129
         4.92366       572.85815
        38.68795       672.48566
            9999
 1UMB23A                  1.110995.061132.79
 2UMB69A                  .12379.1856839.837
 3X0174AX0174B             .0114.55761  13.8
  TRANSFORMER X0014A                  X0014B                                   0
 1UMB23B      
 2UMB69B      
 3X0174BX0174C
  TRANSFORMER X0014A                  X0014C                                   0
 1UMB23C      
 2UMB69C      
 3X0174CX0174A
  X0175A                    1.E6                                               0
  X0175B                    1.E6                                               0
  X0175C                    1.E6                                               0
C LT Umbara - PeroxD
1 UMB23APOX23A            0.21160.74060.0081
2 UMB23BPOX23B            0.10580.2645-0.0010.21160.74060.0081
3 UMB23CPOX23C            0.10580.2645-0.0010.10580.2645-0.0010.21160.74060.0081
C TF III JOI Tap Fixo = 230 kV
  TRANSFORMER             1.2689523.04X0015A  1.E6                             0
       1.2689184      523.044391
      2.20744652      547.951267
    3.1455574194      572.847071
            100.      631.165006
            9999
 1X0187A                  1.3565    .1132.79
 2JOI13A                  1.0049 19.9279.674
 3X0183AX0183B             .0186 4.386  13.8
  TRANSFORMER X0015A                  X0015B                                   0
 1X0187B      
 2JOI13B      
 3X0183BX0183C
  TRANSFORMER X0015A                  X0015C                                   0
 1X0187C      
 2JOI13C      
 3X0183CX0183A
  X0183A                    1.E6                                               0
  X0183B                    1.E6                                               0
  X0183C                    1.E6                                               0
98BLU52A                  275.031299.5                                         0
      275.029151      1299.49509
      341.142215      1591.88154
      444.419862      1932.99901
      596.014273      2274.11649
            9999
  X0174A                    1.E6                                               0
  X0174B                    1.E6                                               0
  X0174C                    1.E6                                               0
C LT Curitiba - Sao Mateus do Sul
-1X0202ACBA23A             .35051.6286.00632  117. 0 0                         0
-2X0202BCBA23B            .09992.51883.00844  117. 0 0                         0
-3X0202CCBA23C                                                                 0
C LT 525 Bateias - Itatiba
-1ITB50AX0401A             .3548 1.318   .01  390. 0 0                         0
-2ITB50BX0401B             .0166 .2713.01649  390. 0 0                         0
-3ITB50CX0401C                                                                 0
C TF IV JOI Tap Fixo = 230 kV
  TRANSFORMER              2.013523.04X0016A  1.E6                             0
      2.01301809      523.044391
        4.459512      547.951267
      8.82106688      572.858142
            100.      587.033604
            9999
 1X0188A                   .847729.555132.79
 2JOI13A                   .4469.5084779.674
 3X0182AX0182B             .0197 3.984  13.8
  TRANSFORMER X0016A                  X0016B                                   0
 1X0188B      
 2JOI13B      
 3X0182BX0182C
  TRANSFORMER X0016A                  X0016C                                   0
 1X0188C      
 2JOI13C      
 3X0182CX0182A
  X0401A                        3062.5                                         0
  X0401B                        3062.5                                         0
  X0401C                        3062.5                                         0
C TF 7 JOI Tap Fixo = 218 kV
  TRANSFORMER             1.4755519.35X0017A  1.E6                             0
      1.47552266       519.35497
      2.95588855      546.739141
            100.      565.035517
            9999
 1JOI23A                   1.02787.335125.86
 2X0186A                  1.0918  .00175.361
 3X0184AX0184B             .0089 1.324   6.6
  TRANSFORMER X0017A                  X0017B                                   0
 1JOI23B      
 2X0186B      
 3X0184BX0184C
  TRANSFORMER X0017A                  X0017C                                   0
 1JOI23C      
 2X0186C      
 3X0184CX0184A
  X0184A                    1.E6                                               0
  X0184B                    1.E6                                               0
  X0184C                    1.E6                                               0
C TF VI JOI Tap Fixo = 230 kV 
  TRANSFORMER             .75685523.04X0018A  1.E6                             0
      0.75685488      523.044391
     0.961813333      547.951267
      1.25984423      572.858142
      18.8229786      622.671894
      129.954465      747.206273
            9999
 1X0189A                   .827130.153132.79
 2JOI13A                   .3897 .152479.674
 3X0185AX0185B             .0119 4.045  13.8
  TRANSFORMER X0018A                  X0018B                                   0
 1X0189B      
 2JOI13B      
 3X0185BX0185C
  TRANSFORMER X0018A                  X0018C                                   0
 1X0189C      
 2JOI13C      
 3X0185CX0185A
  X0185A                    1.E6                                               0
  X0185B                    1.E6                                               0
  X0185C                    1.E6                                               0
C LT 230 Jaragua do Sul - Blumenau --- Params identicos a antiga BLU-JOI
-1BLU2A X0229A            .363511.1295.00595 35.25 0 0                         0
-2BLU2B X0229B            .10035.51803.00846 35.25 0 0                         0
-3BLU2C X0229C                                                                 0
C LT JOI-VEGA
-1VSL23AJOI23A            .424041.6442.00562  44.1 0 0                         0
-2VSL23BJOI23B            .10031.49697.00883  44.1 0 0                         0
-3VSL23CJOI23C                                                                 0
C LT JOI-VEGA
-1VSL23AJOI23A            .424041.6442.00562  44.1 0 0                         0
-2VSL23BJOI23B            .10031.49697.00883  44.1 0 0                         0
-3VSL23CJOI23C                                                                 0
C TF VIII JOI Tap Fixo = 69 kV Saturação TF I Siderópolis
  TRANSFORMER             1.0078523.03X0019A  1.E6                             0
      1.00781615      523.034282
      1.57121693      547.992531
      1.86857115      572.901283
            100.       599.41227
            9999
 1X0242A                   .8168 54.55132.79
 2JOI69A                   .0613  .00139.837
 3X0195AX0195B             .0142 .6574  13.8
  TRANSFORMER X0019A                  X0019B                                   0
 1X0242B      
 2JOI69B      
 3X0195BX0195C
  TRANSFORMER X0019A                  X0019C                                   0
 1X0242C      
 2JOI69C      
 3X0195CX0195A
  X0195A                    1.E6                                               0
  X0195B                    1.E6                                               0
  X0195C                    1.E6                                               0
C TF 1 JOI Saturação: TF II SE ITA 45158 TAP FIXO = 69,3 kV Saturação TF II ITA
  TRANSFORMER             3.1544314.48X0020A  1.E6                             0
      3.15437084      314.476738
      6.52918795      337.919549
            100.      351.501329
            9999
 1X0196A                   .614532.77478.751
 2JOI69A                   .1332  .001 40.01
 3X0198AX0198B             .0337 .8201  13.2
  TRANSFORMER X0020A                  X0020B                                   0
 1X0196B      
 2JOI69B      
 3X0198BX0198C
  TRANSFORMER X0020A                  X0020C                                   0
 1X0196C      
 2JOI69C      
 3X0198CX0198A
  X0198A                    1.E6                                               0
  X0198B                    1.E6                                               0
  X0198C                    1.E6                                               0
C TF 2 JOI TAP FIXO = 69,25 kV
  TRANSFORMER             6.7746314.48X0021A  1.E6                             0
      6.77457435      314.476738
      9.22860457      328.764406
            100.      347.156568
            9999
 1X0201A                  1.092551.82278.751
 2JOI69A                   .2347  .00139.982
 3X0199AX0199B             .04011.1444  13.2
  TRANSFORMER X0021A                  X0021B                                   0
 1X0201B      
 2JOI69B      
 3X0199BX0199C
  TRANSFORMER X0021A                  X0021C                                   0
 1X0201C      
 2JOI69C      
 3X0199CX0199A
  X0199A                    1.E6                                               0
  X0199B                    1.E6                                               0
  X0199C                    1.E6                                               0
C TF V JOI  Tap Fixo = 69,25 kV
  TRANSFORMER             1.6596314.48X0022A  1.E6                             0
      1.65961322      314.476738
      3.64414908      338.491325
            100.      358.612574
            9999
 1X0197A                  1.030653.51878.751
 2JOI69A                   .2246  .00139.981
 3X0200AX0200B             .0667 1.128  13.8
  TRANSFORMER X0022A                  X0022B                                   0
 1X0197B      
 2JOI69B      
 3X0200BX0200C
  TRANSFORMER X0022A                  X0022C                                   0
 1X0197C      
 2JOI69C      
 3X0200CX0200A
  X0200A                    1.E6                                               0
  X0200B                    1.E6                                               0
  X0200C                    1.E6                                               0
98X0001A                  275.031299.5                                         0
      275.029151      1299.49509
      341.142215      1591.88154
      444.419862      1932.99901
      596.014273      2274.11649
            9999
98X0001B                  275.031299.5                                         0
      275.029151      1299.49509
      341.142215      1591.88154
      444.419862      1932.99901
      596.014273      2274.11649
            9999
98X0001C                  275.031299.5                                         0
      275.029151      1299.49509
      341.142215      1591.88154
      444.419862      1932.99901
      596.014273      2274.11649
            9999
98X0002A                  275.031299.5                                         0
      275.029151      1299.49509
      341.142215      1591.88154
      444.419862      1932.99901
      596.014273      2274.11649
            9999
98X0002B                  275.031299.5                                         0
      275.029151      1299.49509
      341.142215      1591.88154
      444.419862      1932.99901
      596.014273      2274.11649
            9999
  T_TF1A                    1.E6                                               0
  T_TF1B                    1.E6                                               0
  T_TF1C                    1.E6                                               0
  X0176A                    1.E6                                               0
  X0176B                    1.E6                                               0
  X0176C                    1.E6                                               0
98BLU52B                  275.031299.5                                         0
      275.029151      1299.49509
      341.142215      1591.88154
      444.419862      1932.99901
      596.014273      2274.11649
            9999
98BLU52C                  275.031299.5                                         0
      275.029151      1299.49509
      341.142215      1591.88154
      444.419862      1932.99901
      596.014273      2274.11649
            9999
98CBA52A                  268.13 1280.                                         0
      268.127426      1279.95019
      319.660628      1602.70633
      871.469734       2144.1621
            9999
98CBA52B                  268.13 1280.                                         0
      268.127426      1279.95019
      319.660628      1602.70633
      871.469734       2144.1621
            9999
  ARE1A                     1.E6                                               0
  ARE1B                     1.E6                                               0
  ARE1C                     1.E6                                               0
C BLUMENAU TRAFO VI - MITSUBISHI - TAP 525
  TRANSFORMER             .579481191.2X0023A  1.E6                             0
      0.57947908      1191.20289
      1.25798005      1307.61698
      9.09593592      1353.64078
      11.7445964      1380.71356
            100.      1453.80435
            9999
 1BLU52A                   .24928.2688303.11
 2X0191A                   .12155.0784132.79
 3BLU16ABLU16B             .0027 .2471  13.8
  TRANSFORMER X0023A                  X0023B                                   0
 1BLU52B      
 2X0191B      
 3BLU16BBLU16C
  TRANSFORMER X0023A                  X0023C                                   0
 1BLU52C      
 2X0191C      
 3BLU16CBLU16A
C BLUMENAU TRAFO VII - ECTE - TAP 525 
  TRANSFORMER             3.09791250.8X0024A  1.E6                             0
      3.09785251      1250.76407
      5.11751632      1421.28881
            100.      1442.44252
            9999
 1BLU52A                   .26452.9492303.11
 2X0190A                   .07346.1628132.79
 3BLU17ABLU17B             .0037.25668  13.8
  TRANSFORMER X0024A                  X0024B                                   0
 1BLU52B      
 2X0190B      
 3BLU17BBLU17C
  TRANSFORMER X0024A                  X0024C                                   0
 1BLU52C      
 2X0190C      
 3BLU17CBLU17A
C AREIA TRAFO II - MITSUBISHI - TAP 512.5 KV
  TRANSFORMER             1.2742 1221.X0025A  1.E6                             0
      1.27420818      1220.98348
      1.83328129      1276.48273
      9.06977065       1321.4107
      12.0656736      1347.83889
      18.4391323      1374.26708
      29.6572764      1394.35259
            100.      1449.50222
            9999
 1X0227A                   .24099.7971295.89
 2ARE23A                   .1182 4.724132.79
 3ARE1A ARE1B              .0026.25087  13.8
  TRANSFORMER X0025A                  X0025B                                   0
 1X0227B      
 2ARE23B      
 3ARE1B ARE1C 
  TRANSFORMER X0025A                  X0025C                                   0
 1X0227C      
 2ARE23C      
 3ARE1C ARE1A 
  BLU15A                    1.E6                                               0
  BLU15B                    1.E6                                               0
  BLU15C                    1.E6                                               0
  BLU16A                    1.E6                                               0
  BLU16B                    1.E6                                               0
  BLU16C                    1.E6                                               0
  BLU17A                    1.E6                                               0
  BLU17B                    1.E6                                               0
  BLU17C                    1.E6                                               0
C BLUMENAU TRAFO V - MITSUBISHI - TAP 525KV
  TRANSFORMER             .605231191.2X0026A  1.E6                             0
     0.605233706      1191.20289
      1.45364317      1307.61698
      9.01020574      1353.64078
      11.7566025      1380.71356
            100.      1453.80435
            9999
 1BLU52A                   .24968.0482303.11
 2X0194A                   .12215.1154132.79
 3BLU15ABLU15B             .0027 .2467  13.8
  TRANSFORMER X0026A                  X0026B                                   0
 1BLU52B      
 2X0194B      
 3BLU15BBLU15C
  TRANSFORMER X0026A                  X0026C                                   0
 1BLU52C      
 2X0194C      
 3BLU15CBLU15A
98X0002C                  275.031299.5                                         0
      275.029151      1299.49509
      341.142215      1591.88154
      444.419862      1932.99901
      596.014273      2274.11649
            9999
-1X0207AX0205A            .350491.6023.00632  129. 0 0                         0
-2X0207BX0205B            .10022.51883.00844  129. 0 0                         0
-3X0207CX0205C                                                                 0
  X0236A                    1.E6                                               0
  X0236B                    1.E6                                               0
  X0236C                    1.E6                                               0
  X0210A                    1.E6                                               0
  X0210B                    1.E6                                               0
  X0210C                    1.E6                                               0
98CBA52C                  268.13 1280.                                         0
      268.127426      1279.95019
      319.660628      1602.70633
      871.469734       2144.1621
            9999
98CBA52A                  268.13 1280.                                         0
      268.127426      1279.95019
      319.660628      1602.70633
      871.469734       2144.1621
            9999
98CBA52B                  268.13 1280.                                         0
      268.127426      1279.95019
      319.660628      1602.70633
      871.469734       2144.1621
            9999
98CBA52C                  268.13 1280.                                         0
      268.127426      1279.95019
      319.660628      1602.70633
      871.469734       2144.1621
            9999
C CURITIBA TRAFO II - MITSUBISHI - TAP 500 KV TAP-3 Sat 500kV
  TRANSFORMER             .972781191.2X0027A  1.E6                             0
      1.28651161      1191.20289
      1.87307653      1245.34848
      9.30106384      1289.18063
      30.3987761      1360.34341
            100.      1411.89956
            9999
 1CBA52A                   .240611.575288.68
 2CBA23A                   .11774.3484132.79
 3X0176AX0176B             .0026.25407  13.8
  TRANSFORMER X0027A                  X0027B                                   0
 1CBA52B      
 2CBA23B      
 3X0176BX0176C
  TRANSFORMER X0027A                  X0027C                                   0
 1CBA52C      
 2CBA23C      